<?xml version="1.0" encoding="UTF-8"?>

<!-- generated on 2024-03-06 17:38:14 by Eclipse SUMO duarouter Version 1.19.0
<configuration xmlns:xsi="http://www.w3.org/2001/XMLSchema-instance" xsi:noNamespaceSchemaLocation="http://sumo.dlr.de/xsd/duarouterConfiguration.xsd">

    <input>
        <net-file value="l3harris.net.xml"/>
        <route-files value="duarouter_inputs/has_0a4e2b81-9dc5-802a-d184-18e8f03087a9_duarouter_input.xml"/>
    </input>

    <output>
        <output-file value="outputs/has_0a4e2b81-9dc5-802a-d184-18e8f03087a9_duarouter_input.rou.xml"/>
    </output>

</configuration>
-->

<routes xmlns:xsi="http://www.w3.org/2001/XMLSchema-instance" xsi:noNamespaceSchemaLocation="http://sumo.dlr.de/xsd/routes_file.xsd">
    <vType id="veh_passenger" vClass="passenger"/>
    <vehicle id="19d26bbc-05da-4564-9e4a-8f330ecedc8a" type="veh_passenger" depart="0.00" departLane="best" departPos="36.36" arrivalPos="82.90">
        <route edges="8920936#2 8920936#3 8920936#4 8920936#5 -247966218#2 -247966218#1 -247966218#0 -417400703#2 -417400701#0 -784325413#3 -784325413#2 -784325413#1 -417400705 -26943758#3 -26943758#2 -26943758#1 -26943758#0 -1113001505#1 -706548258#1 -1234234237 -1027285198 -254299376 8920632#0 706548259 779093219 779094129 27374826 779094128 1049986923 760623357 1049986924 515833903#0 515833903#1 515833903#2 1030068318 458779331 771471743 458779332#0 458779332#1-AddedOnRampEdge 458779332#1 458779332#2 185227692 8917292#0 8917292#1 70051598#0 70051598#2 341016811#0 341016811#2 406722483 397085178#1 397085178#2 776881507#1 1120103262#0 1120103262#1 1120103262#2 397085177#0 397085177#1 70051630#0 70051630#1 70051630#2 70051630#3 70051630#4 133781702#0 133781702#1 133781702#2 419633757 921288438 8922384#2 8922384#3 8922384#4 26765619#0 26765619#1 306338107#1 306338107#2 306338107#5 306338107#6 966188223#0 397103500#1 30832402#0 30832402#3 30832402#4 30832402#7 24603666#0 24603666#1 468441206#1 1052596512#0 1052596511#0 1052596509#0 1032790856#1 1032790857#0 620247386#0 417699603#0 1032783931#0 1032783931#2 1032783932#0 1032783934#0 1032783936 417699625 417699604#0 417699619#0 1041356907#0 1041356907#1 1041356907#2 84733275 287658819 414374880 91181765#0 91181765#1 525614248 525614246#0 -512283895#2 -112408726#4 -112408726#1 -286004350#5 -286004350#3 -286004350#2 -286004350#1 -286004350#0 -8917284#20 -8917284#19 -8917284#18 -8917284#16 -8917284#12 -8917284#10 -8917284#9 -8917284#7 -8917284#5 -8917284#3 -8917284#1 -8917284#0 286003784#0 286003784#1 224200970#0 254396717#0 254396717#2 417105387 1090200058 224316515#0 224316515#2 224316515#3 1220662944#0 283529756#0 283529756#2 283529756#4 254750797#0 254750797#1 514524723#0 514524723#1 514524723#2 514524723#3 619535706#1 619535706#2 -619535700 -224200963#1 -224200963#0 680243316#0 254466687#0 254466687#1 254466688 1158606267#0 1158606267#1 1158606267#2 1158606267#3 396960303#0 86331218#1 86331224#1 86331224#2 86331224#3 86331242#0 86331242#1 515613094 396959338 396959339 24604614#1"/>
    </vehicle>
    <vehicle id="15a26312-4d07-4d65-8bd3-ca8d4cd44065" type="veh_passenger" depart="0.00" departLane="best" departPos="82.90" arrivalPos="26.22689878580759">
        <route edges="24604614#1 -87231622#1 -86331259#16 -86331259#15 -86331259#14 -86331259#13 -86331259#12 -86331259#11 -86331259#10 -86331259#8 -86331259#7 -86331259#6 -86331259#5 -86331259#4 -86331259#3 -86331259#2 -86331259#1 -396966241#1 -396966241#0 -427285415#3 -427285415#1 -427285415#0 -427285414#1 427285413 396967016#1 396967014#0 262931733#0 262931733#2 262931733#3 215848126#0 225853142#2 396980733#0 396980733#2 396980732#1 225853143#0 225853143#1 742257634 879182438 742262460 396980736#0 396980736#1 87565860#0 87565860#1 32928893#0 32928893#1 27167713#0 970239611 781807339 44671299#1 254759957#1 254759957#2 254759957#3 254759957#7 396983131#1 417313683#1 44671301#0 44671301#3 44671301#4 137815564#0 8916820#1 8916820#3 397164312#0 133856250 -137812999 32928856 444491372 137812981 444491367 444491375 444116277 137812997 1060530335 514610065"/>
    </vehicle>
    <vehicle id="c54973ae-c1c9-421a-8236-21e17fec565c" type="veh_passenger" depart="0.00" departLane="best" departPos="26.22689878580759" arrivalPos="26.22689878580759">
        <route edges="514610065"/>
    </vehicle>
</routes>
